
.SUBCKT IMD OUT TSN TSP GLVN GLVP
.ENDS

